Version 4
SHEET 1 932 680
WIRE -144 -16 -304 -16
WIRE -16 -16 -144 -16
WIRE 144 -16 -16 -16
WIRE 320 -16 320 -48
WIRE 144 16 144 -16
WIRE -304 64 -304 -16
WIRE -144 96 -144 -16
WIRE -16 96 -16 -16
WIRE 16 96 -16 96
WIRE 320 96 320 48
WIRE 320 96 272 96
WIRE 368 96 320 96
WIRE 512 96 448 96
WIRE 672 96 512 96
WIRE 832 96 672 96
WIRE 512 128 512 96
WIRE 416 160 272 160
WIRE 832 160 832 96
WIRE 672 176 672 96
WIRE 16 224 -16 224
WIRE 336 224 272 224
WIRE 416 240 416 160
WIRE 512 240 512 208
WIRE 512 240 416 240
WIRE 336 256 336 224
WIRE 512 256 512 240
WIRE 832 272 832 224
WIRE -144 288 -144 160
WIRE 144 320 144 304
WIRE -16 352 -16 224
WIRE 512 368 512 336
WIRE 672 368 672 240
WIRE 336 384 336 336
WIRE 336 480 336 448
WIRE -16 496 -16 432
FLAG -304 144 0
FLAG 144 320 0
FLAG 320 -48 0
FLAG 336 480 0
FLAG 512 368 0
FLAG 672 368 0
FLAG 832 272 0
FLAG -144 288 0
FLAG -16 496 0
SYMBOL PowerProducts\\LT1074 144 160 R0
SYMATTR InstName U1
SYMBOL voltage -304 48 R0
WINDOW 123 0 0 Left 0
WINDOW 39 24 124 Left 2
SYMATTR InstName V1
SYMATTR Value 20
SYMATTR SpiceLine Rser=1m
SYMBOL ind 464 80 R90
WINDOW 0 5 56 VBottom 2
WINDOW 3 32 56 VTop 2
SYMATTR InstName L1
SYMATTR Value 33µ
SYMATTR SpiceLine Ipk=3.5 Rser=0.078 Rpar=0 Cpar=0 mfg="Murata" pn="DD1274AS-H-330M=P3"
SYMBOL schottky 304 -16 R0
SYMATTR InstName D1
SYMATTR Value MBR745
SYMBOL res 320 240 R0
SYMATTR InstName R1
SYMATTR Value 10k
SYMBOL cap 320 384 R0
SYMATTR InstName C1
SYMATTR Value 10n
SYMBOL res 528 224 R180
WINDOW 0 36 76 Left 2
WINDOW 3 36 40 Left 2
SYMATTR InstName R2
SYMATTR Value 10k
SYMBOL res 496 240 R0
SYMATTR InstName R3
SYMATTR Value 1k
SYMBOL polcap 656 176 R0
WINDOW 3 24 56 Left 2
SYMATTR InstName C2
SYMATTR Value 1000µ
SYMATTR Description Capacitor
SYMATTR Type cap
SYMATTR SpiceLine V=16 Irms=700m Rser=0.12 Lser=0 mfg="Nichicon" pn="UPR1C102MPH" type="Al electrolytic"
SYMBOL polcap -160 96 R0
WINDOW 3 24 56 Left 2
SYMATTR InstName C3
SYMATTR Value 100µ
SYMATTR Description Capacitor
SYMATTR Type cap
SYMATTR SpiceLine V=50 Irms=3.3m Rser=3.09403 Lser=3.75607n mfg="Würth Elektronik" pn="860010672001 WCAP-ATG8 5x11" type="Al electrolytic"
SYMBOL res -32 336 R0
SYMATTR InstName R5
SYMATTR Value 10k
SYMBOL load 816 160 R0
WINDOW 123 0 0 Left 0
WINDOW 39 0 0 Left 0
SYMATTR InstName I1
SYMATTR Value 100m
TEXT -370 504 Left 2 !.tran 10m startup
